[General]
network = inet.examples.pccp.smallNETwork
description = icn ad-hoc congestion control test
num-rngs = 10	# 随机数发生器个数
sim-time-limit = 5s

smallNETwork.rngNum = 0	# smallNETwork的参数
smallNETwork.numHosts = 3

**.constraintAreaMinX = -500m
**.constraintAreaMinY = -500m
**.constraintAreaMinZ = 0m
**.constraintAreaMaxX = 500m
**.constraintAreaMaxY = 500m
**.constraintAreaMaxZ = 0m

